result/opf_result_min.json
{
    "solve_time": 0.43399977684020996,
    "optimizer": "Ipopt",
    "termination_status": "LOCALLY_SOLVED",
    "dual_status": "FEASIBLE_POINT",
    "primal_status": "FEASIBLE_POINT",
    "objective": 0.043806187050417535,
    "solution": {
        "branch": {
            "24": {
                "qf": [
                    0.0031186425939145916,
                    0.003118642593914634,
                    0.003118642593914654
                ],
                "qt": [
                    -0.0030613580889951304,
                    -0.003061358088995099,
                    -0.0030613580889951152
                ],
                "pt": [
                    -0.0027446998092698098,
                    -0.0027446998092702517,
                    -0.0027446998092701953
                ],
                "pf": [
                    0.002809671678555059,
                    0.0028096716785556185,
                    0.0028096716785555318
                ]
            },
            "32": {
                "qf": [
                    0.0004048139318337767,
                    0.0004048139318335761,
                    0.00040481393183352106
                ],
                "qt": [
                    -0.00040091296148444063,
                    -0.0004009129614842704,
                    -0.00040091296148421577
                ],
                "pt": [
                    -0.0009007514675680928,
                    -0.0009007514675682347,
                    -0.0009007514675680959
                ],
                "pf": [
                    0.0009050806779572741,
                    0.0009050806779574409,
                    0.0009050806779572877
                ]
            },
            "1": {
                "qf": [
                    0.008414101739936944,
                    0.008414101739936354,
                    0.008414101739936496
                ],
                "qt": [
                    -0.008380013187893186,
                    -0.008380013187892301,
                    -0.00838001318789245
                ],
                "pt": [
                    -0.013338465016065481,
                    -0.013338465016064885,
                    -0.01333846501606486
                ],
                "pf": [
                    0.013405336582154039,
                    0.013405336582154028,
                    0.013405336582153994
                ]
            },
            "12": {
                "qf": [
                    0.0032117053570496854,
                    0.003211705357049589,
                    0.003211705357049739
                ],
                "qt": [
                    -0.0032019759263623216,
                    -0.003201975926362364,
                    -0.003201975926362384
                ],
                "pt": [
                    -0.003009671652183589,
                    -0.003009671652184152,
                    -0.003009671652184065
                ],
                "pf": [
                    0.003028780825107089,
                    0.003028780825107644,
                    0.0030287808251077005
                ]
            },
            "29": {
                "qf": [
                    0.005347771680553959,
                    0.005347771680553214,
                    0.0053477716805537465
                ],
                "qt": [
                    -0.005163313885635168,
                    -0.0051633138856344105,
                    -0.005163313885634943
                ],
                "pt": [
                    -0.007034294180561784,
                    -0.007034294180561134,
                    -0.007034294180561386
                ],
                "pf": [
                    0.0072479729744517225,
                    0.00724797297445103,
                    0.00724797297445127
                ]
            },
            "20": {
                "qf": [
                    0.0017940161451339496,
                    0.001794016145133612,
                    0.0017940161451338915
                ],
                "qt": [
                    -0.001759855184685219,
                    -0.0017598551846848866,
                    -0.0017598551846851394
                ],
                "pt": [
                    -0.0035802733414617544,
                    -0.00358027334146078,
                    -0.003580273341460738
                ],
                "pf": [
                    0.0035906077016436195,
                    0.00359060770164257,
                    0.0035906077016425674
                ]
            },
            "4": {
                "qf": [
                    0.0007106627915569654,
                    0.0007106627915568502,
                    0.0007106627915568509
                ],
                "qt": [
                    -0.0007015560635725941,
                    -0.0007015560635725021,
                    -0.0007015560635724524
                ],
                "pt": [
                    -0.0014013089547894762,
                    -0.001401308954789732,
                    -0.0014013089547897546
                ],
                "pf": [
                    0.0014105233446641957,
                    0.0014105233446645648,
                    0.0014105233446646368
                ]
            },
            "2": {
                "qf": [
                    0.0008210278252674836,
                    0.000821027825267336,
                    0.00082102782526741
                ],
                "qt": [
                    -0.0008195100202728851,
                    -0.0008195100202728193,
                    -0.0008195100202728557
                ],
                "pt": [
                    -0.001622461467259635,
                    -0.0016224614672593317,
                    -0.00162246146725901
                ],
                "pf": [
                    0.0016270515485967089,
                    0.0016270515485963635,
                    0.001627051548596151
                ]
            },
            "6": {
                "qf": [
                    0.00013345182596803302,
                    0.00013345182596796973,
                    0.00013345182596797704
                ],
                "qt": [
                    -0.00013333333207468965,
                    -0.0001333333320746897,
                    -0.0001333333320746897
                ],
                "pt": [
                    -0.00019999990169483403,
                    -0.00019999990169488786,
                    -0.00019999990169488347
                ],
                "pf": [
                    0.00020007591919335758,
                    0.00020007591919344746,
                    0.00020007591919343916
                ]
            },
            "25": {
                "qf": [
                    0.00013363369263781646,
                    0.00013363369263781535,
                    0.00013363369263781573
                ],
                "qt": [
                    -0.00013333333288635086,
                    -0.00013333333288635086,
                    -0.00013333333288635086
                ],
                "pt": [
                    -0.0002999999888871753,
                    -0.0002999999888871762,
                    -0.0002999999888871761
                ],
                "pf": [
                    0.0003002271359006247,
                    0.00030022713590059874,
                    0.0003002271359006265
                ]
            },
            "23": {
                "qf": [
                    0.0029946914233588418,
                    0.00299469142335881,
                    0.002994691423358826
                ],
                "qt": [
                    -0.0029554244045689503,
                    -0.0029554244045688384,
                    -0.002955424404568881
                ],
                "pt": [
                    -0.0024996263676481507,
                    -0.002499626367648526,
                    -0.002499626367648615
                ],
                "pf": [
                    0.0025446998454313778,
                    0.0025446998454318128,
                    0.0025446998454317577
                ]
            },
            "22": {
                "qf": [
                    0.0005753874584970845,
                    0.000575387458497022,
                    0.0005753874584970919
                ],
                "qt": [
                    -0.0005705428858017303,
                    -0.0005705428858015408,
                    -0.0005705428858017061
                ],
                "pt": [
                    -0.0012050685603480842,
                    -0.0012050685603475822,
                    -0.0012050685603474003
                ],
                "pf": [
                    0.0012087487632682161,
                    0.0012087487632678193,
                    0.00120874876326757
                ]
            },
            "11": {
                "qf": [
                    0.0002014735620552211,
                    0.00020147356205513608,
                    0.00020147356205520763
                ],
                "qt": [
                    -0.00020012993724838354,
                    -0.00020012993724833424,
                    -0.00020012993724837728
                ],
                "pt": [
                    -0.0004011421414694605,
                    -0.0004011421414436662,
                    -0.00040114214144348675
                ],
                "pf": [
                    0.0004021462290689478,
                    0.0004021462290670425,
                    0.0004021462290668865
                ]
            },
            "13": {
                "qf": [
                    0.00030387622020051176,
                    0.00030387622020032213,
                    0.0003038762202004875
                ],
                "qt": [
                    -0.00030238732925302045,
                    -0.0003023873292528595,
                    -0.0003023873292530195
                ],
                "pt": [
                    -0.0008033962562831521,
                    -0.000803396256282344,
                    -0.0008033962562821954
                ],
                "pf": [
                    0.000805068729584531,
                    0.0008050687295839603,
                    0.0008050687295837819
                ]
            },
            "5": {
                "qf": [
                    0.0005389453500575187,
                    0.0005389453500575374,
                    0.0005389453500572602
                ],
                "qt": [
                    -0.0005381472647418035,
                    -0.0005381472647416028,
                    -0.0005381472647415478
                ],
                "pt": [
                    -0.0012050806674155205,
                    -0.001205080667415688,
                    -0.0012050806674155346
                ],
                "pf": [
                    0.0012059169794946993,
                    0.0012059169794948657,
                    0.00120591697949449
                ]
            },
            "31": {
                "qf": [
                    0.0033026310746596425,
                    0.0033026310746592236,
                    0.0033026310746594764
                ],
                "qt": [
                    -0.003295038689532588,
                    -0.0032950386895324916,
                    -0.0032950386895326416
                ],
                "pt": [
                    -0.0032287808005270094,
                    -0.0032287808005275675,
                    -0.0032287808005276235
                ],
                "pf": [
                    0.0032436865022917867,
                    0.0032436865022921818,
                    0.0032436865022924385
                ]
            },
            "15": {
                "qf": [
                    0.00026905399699435773,
                    0.0002690539969941967,
                    0.00026905399699435665
                ],
                "qt": [
                    -0.0002681402276371157,
                    -0.00026814022763703074,
                    -0.0002681402276371023
                ],
                "pt": [
                    -0.0006021458418392565,
                    -0.0006021458418377826,
                    -0.0006021458418376174
                ],
                "pf": [
                    0.0006033964955224092,
                    0.0006033964955214596,
                    0.000603396495521316
                ]
            },
            "27": {
                "qf": [
                    0.0007028433546052193,
                    0.0007028433546051535,
                    0.0007028433546051899
                ],
                "qt": [
                    -0.0006920541241152554,
                    -0.000692054124115193,
                    -0.0006920541241152628
                ],
                "pt": [
                    -0.0014087486448696685,
                    -0.001408748644869307,
                    -0.0014087486448690555
                ],
                "pf": [
                    0.0014224615307896187,
                    0.0014224615307893032,
                    0.0014224615307889827
                ]
            },
            "28": {
                "qf": [
                    0.00013346327168115176,
                    0.00013346327168110232,
                    0.0001334632716811454
                ],
                "qt": [
                    -0.00013333333222883246,
                    -0.0001333333322288326,
                    -0.0001333333322288326
                ],
                "pt": [
                    -0.00025067370978310694,
                    -0.00025049065512418116,
                    -0.00025049065559202763
                ],
                "pf": [
                    0.00020114402061553906,
                    0.000201144020566297,
                    0.00020114402056609315
                ]
            },
            "16": {
                "qf": [
                    0.0010846063488555869,
                    0.0010846063488553059,
                    0.0010846063488555116
                ],
                "qt": [
                    -0.0010686602748749851,
                    -0.001068660274874701,
                    -0.0010686602748749355
                ],
                "pt": [
                    -0.0021987757789159517,
                    -0.0021987757789151316,
                    -0.0021987757789150675
                ],
                "pf": [
                    0.0022209709238827802,
                    0.00222097092388198,
                    0.0022209709238819294
                ]
            },
            "14": {
                "qf": [
                    0.002722091072380866,
                    0.002722091072380754,
                    0.002722091072380797
                ],
                "qt": [
                    -0.0027106627903467893,
                    -0.002710662790346674,
                    -0.0027106627903466744
                ],
                "pt": [
                    -0.002077189951676352,
                    -0.0020771899516767397,
                    -0.00207718995167681
                ],
                "pf": [
                    0.002099626416735785,
                    0.002099626416736148,
                    0.0020996264167362382
                ]
            },
            "21": {
                "qf": [
                    0.000468222731486795,
                    0.0004682227314867029,
                    0.0004682227314866532
                ],
                "qt": [
                    -0.0004667851580455291,
                    -0.0004667851580454659,
                    -0.00046678515804547324
                ],
                "pt": [
                    -0.0009000758236144196,
                    -0.0009000758236145603,
                    -0.0009000758236145477
                ],
                "pf": [
                    0.0009013090412339768,
                    0.0009013090412341918,
                    0.000901309041234218
                ]
            },
            "38": {
                "qf": [
                    0.01320100489203191,
                    0.013201004892031043,
                    0.013201004892031265
                ],
                "qt": [
                    -0.008414101739534654,
                    -0.008414101739534064,
                    -0.008414101739534208
                ],
                "pt": [
                    -0.013405336572034195,
                    -0.013405336572034186,
                    -0.01340533657203415
                ],
                "pf": [
                    0.014602062350139243,
                    0.014602062350139161,
                    0.014602062350139134
                ]
            },
            "7": {
                "qf": [
                    0.007641067838258649,
                    0.007641067838257748,
                    0.007641067838258173
                ],
                "qt": [
                    -0.007496035419500491,
                    -0.007496035419499704,
                    -0.007496035419500038
                ],
                "pt": [
                    -0.011514463709708898,
                    -0.011514463709708156,
                    -0.011514463709708544
                ],
                "pf": [
                    0.011799214713721168,
                    0.011799214713720405,
                    0.011799214713720755
                ]
            },
            "8": {
                "qf": [
                    0.0009219890433934341,
                    0.0009219890433931975,
                    0.0009219890433933976
                ],
                "qt": [
                    -0.0009210278242816227,
                    -0.0009210278242814753,
                    -0.0009210278242815492
                ],
                "pt": [
                    -0.0017770514920656007,
                    -0.0017770514920652652,
                    -0.0017770514920650517
                ],
                "pf": [
                    0.0017799587064126292,
                    0.0017799587064118308,
                    0.0017799587064117157
                ]
            },
            "26": {
                "qf": [
                    0.005500921211701994,
                    0.0055009212117012474,
                    0.0055009212117017574
                ],
                "qt": [
                    -0.005447771679893026,
                    -0.005447771679892281,
                    -0.0054477716798928145
                ],
                "pt": [
                    -0.007447972958256176,
                    -0.007447972958255486,
                    -0.007447972958255725
                ],
                "pf": [
                    0.0075523278327945175,
                    0.007552327832793816,
                    0.00755232783279412
                ]
            },
            "17": {
                "qf": [
                    0.001001993609139972,
                    0.001001993609139688,
                    0.0010019936091399224
                ],
                "qt": [
                    -0.0009886557090819123,
                    -0.0009886557090816757,
                    -0.0009886557090818756
                ],
                "pt": [
                    -0.0019799586532368327,
                    -0.0019799586532360434,
                    -0.001979958653235927
                ],
                "pf": [
                    0.001998775817633406,
                    0.00199877581763258,
                    0.0019987758176325168
                ]
            },
            "19": {
                "qf": [
                    0.0006720590865106701,
                    0.0006720590865106657,
                    0.0006720590865106103
                ],
                "qt": [
                    -0.0006666666660621107,
                    -0.0006666666660621107,
                    -0.0006666666660621107
                ],
                "pt": [
                    -0.0013999999844648134,
                    -0.0013999999844648149,
                    -0.0013999999844648147
                ],
                "pf": [
                    0.001406891424460681,
                    0.0014068914244607076,
                    0.001406891424460652
                ]
            },
            "10": {
                "qf": [
                    0.001538690123803129,
                    0.0015386901238031102,
                    0.0015386901238029485
                ],
                "qt": [
                    -0.0015270888700570202,
                    -0.0015270888700570208,
                    -0.0015270888700569128
                ],
                "pt": [
                    -0.003134367626102236,
                    -0.0031343676261022667,
                    -0.0031343676261021583
                ],
                "pf": [
                    0.0031513461475806263,
                    0.003151346147580631,
                    0.003151346147580525
                ]
            },
            "9": {
                "qf": [
                    0.0014265218521975175,
                    0.001426521852197185,
                    0.0014265218521974379
                ],
                "qt": [
                    -0.0014179396813050829,
                    -0.0014179396813048019,
                    -0.0014179396813050076
                ],
                "pt": [
                    -0.0028876375606256767,
                    -0.00288763756062488,
                    -0.0028876375606248293
                ],
                "pf": [
                    0.0029136066999480583,
                    0.0029136066999470808,
                    0.0029136066999470396
                ]
            },
            "18": {
                "qf": [
                    0.005824011962892613,
                    0.005824011962891847,
                    0.005824011962892341
                ],
                "qt": [
                    -0.005767587877775077,
                    -0.005767587877774329,
                    -0.005767587877774839
                ],
                "pt": [
                    -0.007952327818579923,
                    -0.007952327818579224,
                    -0.007952327818579527
                ],
                "pf": [
                    0.008063117574780452,
                    0.008063117574779703,
                    0.008063117574780199
                ]
            },
            "30": {
                "qf": [
                    0.0013604222039391542,
                    0.0013604222039391549,
                    0.0013604222039390467
                ],
                "qt": [
                    -0.0013387257525915807,
                    -0.0013387257525915763,
                    -0.001338725752591521
                ],
                "pt": [
                    -0.0028068914097472398,
                    -0.002806891409747268,
                    -0.002806891409747212
                ],
                "pf": [
                    0.0028343676394136977,
                    0.0028343676394137277,
                    0.0028343676394136192
                ]
            },
            "3": {
                "qf": [
                    0.0002675796285924438,
                    0.0002675796285922736,
                    0.0002675796285922189
                ],
                "qt": [
                    -0.00026696702552681114,
                    -0.00026696702552681,
                    -0.0002669670255268104
                ],
                "pt": [
                    -0.0006002271248605311,
                    -0.0006002271248605061,
                    -0.0006002271248605337
                ],
                "pf": [
                    0.0006007514785266709,
                    0.0006007514785268119,
                    0.0006007514785266732
                ]
            }
        },
        "gen": {
            "1": {
                "qg_bus": [
                    0.01320100489203191,
                    0.013201004892031043,
                    0.013201004892031265
                ],
                "qg": [
                    0.01320100489203191,
                    0.013201004892031043,
                    0.013201004892031265
                ],
                "pg": [
                    0.014602062350139243,
                    0.014602062350139161,
                    0.014602062350139134
                ],
                "pg_bus": [
                    0.014602062350139243,
                    0.014602062350139161,
                    0.014602062350139134
                ]
            }
        },
        "multiinfrastructure": false,
        "settings": {
            "sbase_default": 100000.0,
            "vbases_default": {
                "12": 7.309254407940663
            },
            "voltage_scale_factor": 1000.0,
            "sbase": 100000.0,
            "power_scale_factor": 1000.0,
            "base_frequency": 60.0
        },
        "multinetwork": false,
        "load": {
            "24": {
                "qd_bus": [
                    0.0006666666666666668,
                    0.0006666666666666668,
                    0.0006666666666666668
                ],
                "pd_bus": [
                    0.0014000000000000002,
                    0.0014000000000000002,
                    0.0014000000000000002
                ],
                "qd": [
                    0.0006666666666666668,
                    0.0006666666666666668,
                    0.0006666666666666668
                ],
                "pd": [
                    0.0014000000000000002,
                    0.0014000000000000002,
                    0.0014000000000000002
                ]
            },
            "32": {
                "qd_bus": [
                    0.00013333333333333334,
                    0.00013333333333333334,
                    0.00013333333333333334
                ],
                "pd_bus": [
                    0.0002,
                    0.0002,
                    0.0002
                ],
                "qd": [
                    0.00013333333333333334,
                    0.00013333333333333334,
                    0.00013333333333333334
                ],
                "pd": [
                    0.0002,
                    0.0002,
                    0.0002
                ]
            },
            "1": {
                "qd_bus": [
                    0.0006666666666666668,
                    0.0006666666666666668,
                    0.0006666666666666668
                ],
                "pd_bus": [
                    0.0014000000000000002,
                    0.0014000000000000002,
                    0.0014000000000000002
                ],
                "qd": [
                    0.0006666666666666668,
                    0.0006666666666666668,
                    0.0006666666666666668
                ],
                "pd": [
                    0.0014000000000000002,
                    0.0014000000000000002,
                    0.0014000000000000002
                ]
            },
            "12": {
                "qd_bus": [
                    0.002,
                    0.002,
                    0.002
                ],
                "pd_bus": [
                    0.0006666666666666668,
                    0.0006666666666666668,
                    0.0006666666666666668
                ],
                "qd": [
                    0.002,
                    0.002,
                    0.002
                ],
                "pd": [
                    0.0006666666666666668,
                    0.0006666666666666668,
                    0.0006666666666666668
                ]
            },
            "29": {
                "qd_bus": [
                    6.666666666666667e-5,
                    6.666666666666667e-5,
                    6.666666666666667e-5
                ],
                "pd_bus": [
                    0.0002,
                    0.0002,
                    0.0002
                ],
                "qd": [
                    6.666666666666667e-5,
                    6.666666666666667e-5,
                    6.666666666666667e-5
                ],
                "pd": [
                    0.0002,
                    0.0002,
                    0.0002
                ]
            },
            "20": {
                "qd_bus": [
                    0.0002,
                    0.0002,
                    0.0002
                ],
                "pd_bus": [
                    0.0003333333333333334,
                    0.0003333333333333334,
                    0.0003333333333333334
                ],
                "qd": [
                    0.0002,
                    0.0002,
                    0.0002
                ],
                "pd": [
                    0.0003333333333333334,
                    0.0003333333333333334,
                    0.0003333333333333334
                ]
            },
            "4": {
                "qd_bus": [
                    0.00011666666666666667,
                    0.00011666666666666667,
                    0.00011666666666666667
                ],
                "pd_bus": [
                    0.0002,
                    0.0002,
                    0.0002
                ],
                "qd": [
                    0.00011666666666666667,
                    0.00011666666666666667,
                    0.00011666666666666667
                ],
                "pd": [
                    0.0002,
                    0.0002,
                    0.0002
                ]
            },
            "2": {
                "qd_bus": [
                    8.333333333333334e-5,
                    8.333333333333334e-5,
                    8.333333333333334e-5
                ],
                "pd_bus": [
                    0.0002,
                    0.0002,
                    0.0002
                ],
                "qd": [
                    8.333333333333334e-5,
                    8.333333333333334e-5,
                    8.333333333333334e-5
                ],
                "pd": [
                    0.0002,
                    0.0002,
                    0.0002
                ]
            },
            "6": {
                "qd_bus": [
                    6.666666666666667e-5,
                    6.666666666666667e-5,
                    6.666666666666667e-5
                ],
                "pd_bus": [
                    0.0002,
                    0.0002,
                    0.0002
                ],
                "qd": [
                    6.666666666666667e-5,
                    6.666666666666667e-5,
                    6.666666666666667e-5
                ],
                "pd": [
                    0.0002,
                    0.0002,
                    0.0002
                ]
            },
            "25": {
                "qd_bus": [
                    0.00013333333333333334,
                    0.00013333333333333334,
                    0.00013333333333333334
                ],
                "pd_bus": [
                    0.00030000000000000003,
                    0.00030000000000000003,
                    0.00030000000000000003
                ],
                "qd": [
                    0.00013333333333333334,
                    0.00013333333333333334,
                    0.00013333333333333334
                ],
                "pd": [
                    0.00030000000000000003,
                    0.00030000000000000003,
                    0.00030000000000000003
                ]
            },
            "23": {
                "qd_bus": [
                    0.00013333333333333334,
                    0.00013333333333333334,
                    0.00013333333333333334
                ],
                "pd_bus": [
                    0.00030000000000000003,
                    0.00030000000000000003,
                    0.00030000000000000003
                ],
                "qd": [
                    0.00013333333333333334,
                    0.00013333333333333334,
                    0.00013333333333333334
                ],
                "pd": [
                    0.00030000000000000003,
                    0.00030000000000000003,
                    0.00030000000000000003
                ]
            },
            "22": {
                "qd_bus": [
                    3.3333333333333335e-5,
                    3.3333333333333335e-5,
                    3.3333333333333335e-5
                ],
                "pd_bus": [
                    0.0002,
                    0.0002,
                    0.0002
                ],
                "qd": [
                    3.3333333333333335e-5,
                    3.3333333333333335e-5,
                    3.3333333333333335e-5
                ],
                "pd": [
                    0.0002,
                    0.0002,
                    0.0002
                ]
            },
            "11": {
                "qd_bus": [
                    0.0001666666666666667,
                    0.0001666666666666667,
                    0.0001666666666666667
                ],
                "pd_bus": [
                    0.00030000000000000003,
                    0.00030000000000000003,
                    0.00030000000000000003
                ],
                "qd": [
                    0.0001666666666666667,
                    0.0001666666666666667,
                    0.0001666666666666667
                ],
                "pd": [
                    0.00030000000000000003,
                    0.00030000000000000003,
                    0.00030000000000000003
                ]
            },
            "13": {
                "qd_bus": [
                    0.0001,
                    0.0001,
                    0.0001
                ],
                "pd_bus": [
                    0.00015000000000000001,
                    0.00015000000000000001,
                    0.00015000000000000001
                ],
                "qd": [
                    0.0001,
                    0.0001,
                    0.0001
                ],
                "pd": [
                    0.00015000000000000001,
                    0.00015000000000000001,
                    0.00015000000000000001
                ]
            },
            "5": {
                "qd_bus": [
                    0.0002666666666666667,
                    0.0002666666666666667,
                    0.0002666666666666667
                ],
                "pd_bus": [
                    0.0004,
                    0.0004,
                    0.0004
                ],
                "qd": [
                    0.0002666666666666667,
                    0.0002666666666666667,
                    0.0002666666666666667
                ],
                "pd": [
                    0.0004,
                    0.0004,
                    0.0004
                ]
            },
            "31": {
                "qd_bus": [
                    0.00023333333333333333,
                    0.00023333333333333333,
                    0.00023333333333333333
                ],
                "pd_bus": [
                    0.0005,
                    0.0005,
                    0.0005
                ],
                "qd": [
                    0.00023333333333333333,
                    0.00023333333333333333,
                    0.00023333333333333333
                ],
                "pd": [
                    0.0005,
                    0.0005,
                    0.0005
                ]
            },
            "15": {
                "qd_bus": [
                    0.0003333333333333334,
                    0.0003333333333333334,
                    0.0003333333333333334
                ],
                "pd_bus": [
                    0.0006666666666666668,
                    0.0006666666666666668,
                    0.0006666666666666668
                ],
                "qd": [
                    0.0003333333333333334,
                    0.0003333333333333334,
                    0.0003333333333333334
                ],
                "pd": [
                    0.0006666666666666668,
                    0.0006666666666666668,
                    0.0006666666666666668
                ]
            },
            "27": {
                "qd_bus": [
                    0.0003333333333333334,
                    0.0003333333333333334,
                    0.0003333333333333334
                ],
                "pd_bus": [
                    0.0006666666666666668,
                    0.0006666666666666668,
                    0.0006666666666666668
                ],
                "qd": [
                    0.0003333333333333334,
                    0.0003333333333333334,
                    0.0003333333333333334
                ],
                "pd": [
                    0.0006666666666666668,
                    0.0006666666666666668,
                    0.0006666666666666668
                ]
            },
            "28": {
                "qd_bus": [
                    6.666666666666667e-5,
                    6.666666666666667e-5,
                    6.666666666666667e-5
                ],
                "pd_bus": [
                    0.0002,
                    0.0002,
                    0.0002
                ],
                "qd": [
                    6.666666666666667e-5,
                    6.666666666666667e-5,
                    6.666666666666667e-5
                ],
                "pd": [
                    0.0002,
                    0.0002,
                    0.0002
                ]
            },
            "16": {
                "qd_bus": [
                    6.666666666666667e-5,
                    6.666666666666667e-5,
                    6.666666666666667e-5
                ],
                "pd_bus": [
                    0.0002,
                    0.0002,
                    0.0002
                ],
                "qd": [
                    6.666666666666667e-5,
                    6.666666666666667e-5,
                    6.666666666666667e-5
                ],
                "pd": [
                    0.0002,
                    0.0002,
                    0.0002
                ]
            },
            "14": {
                "qd_bus": [
                    0.00023333333333333333,
                    0.00023333333333333333,
                    0.00023333333333333333
                ],
                "pd_bus": [
                    0.0004,
                    0.0004,
                    0.0004
                ],
                "qd": [
                    0.00023333333333333333,
                    0.00023333333333333333,
                    0.00023333333333333333
                ],
                "pd": [
                    0.0004,
                    0.0004,
                    0.0004
                ]
            },
            "21": {
                "qd_bus": [
                    0.0001,
                    0.0001,
                    0.0001
                ],
                "pd_bus": [
                    0.0002,
                    0.0002,
                    0.0002
                ],
                "qd": [
                    0.0001,
                    0.0001,
                    0.0001
                ],
                "pd": [
                    0.0002,
                    0.0002,
                    0.0002
                ]
            },
            "7": {
                "qd_bus": [
                    0.0003333333333333334,
                    0.0003333333333333334,
                    0.0003333333333333334
                ],
                "pd_bus": [
                    0.0007000000000000001,
                    0.0007000000000000001,
                    0.0007000000000000001
                ],
                "qd": [
                    0.0003333333333333334,
                    0.0003333333333333334,
                    0.0003333333333333334
                ],
                "pd": [
                    0.0007000000000000001,
                    0.0007000000000000001,
                    0.0007000000000000001
                ]
            },
            "8": {
                "qd_bus": [
                    0.0002666666666666667,
                    0.0002666666666666667,
                    0.0002666666666666667
                ],
                "pd_bus": [
                    0.0004,
                    0.0004,
                    0.0004
                ],
                "qd": [
                    0.0002666666666666667,
                    0.0002666666666666667,
                    0.0002666666666666667
                ],
                "pd": [
                    0.0004,
                    0.0004,
                    0.0004
                ]
            },
            "26": {
                "qd_bus": [
                    0.00013333333333333334,
                    0.00013333333333333334,
                    0.00013333333333333334
                ],
                "pd_bus": [
                    0.00030000000000000003,
                    0.00030000000000000003,
                    0.00030000000000000003
                ],
                "qd": [
                    0.00013333333333333334,
                    0.00013333333333333334,
                    0.00013333333333333334
                ],
                "pd": [
                    0.00030000000000000003,
                    0.00030000000000000003,
                    0.00030000000000000003
                ]
            },
            "17": {
                "qd_bus": [
                    6.666666666666667e-5,
                    6.666666666666667e-5,
                    6.666666666666667e-5
                ],
                "pd_bus": [
                    0.0002,
                    0.0002,
                    0.0002
                ],
                "qd": [
                    6.666666666666667e-5,
                    6.666666666666667e-5,
                    6.666666666666667e-5
                ],
                "pd": [
                    0.0002,
                    0.0002,
                    0.0002
                ]
            },
            "19": {
                "qd_bus": [
                    6.666666666666667e-5,
                    6.666666666666667e-5,
                    6.666666666666667e-5
                ],
                "pd_bus": [
                    0.0002,
                    0.0002,
                    0.0002
                ],
                "qd": [
                    6.666666666666667e-5,
                    6.666666666666667e-5,
                    6.666666666666667e-5
                ],
                "pd": [
                    0.0002,
                    0.0002,
                    0.0002
                ]
            },
            "10": {
                "qd_bus": [
                    0.00011666666666666667,
                    0.00011666666666666667,
                    0.00011666666666666667
                ],
                "pd_bus": [
                    0.0002,
                    0.0002,
                    0.0002
                ],
                "qd": [
                    0.00011666666666666667,
                    0.00011666666666666667,
                    0.00011666666666666667
                ],
                "pd": [
                    0.0002,
                    0.0002,
                    0.0002
                ]
            },
            "9": {
                "qd_bus": [
                    0.00013333333333333334,
                    0.00013333333333333334,
                    0.00013333333333333334
                ],
                "pd_bus": [
                    0.00030000000000000003,
                    0.00030000000000000003,
                    0.00030000000000000003
                ],
                "qd": [
                    0.00013333333333333334,
                    0.00013333333333333334,
                    0.00013333333333333334
                ],
                "pd": [
                    0.00030000000000000003,
                    0.00030000000000000003,
                    0.00030000000000000003
                ]
            },
            "18": {
                "qd_bus": [
                    0.00013333333333333334,
                    0.00013333333333333334,
                    0.00013333333333333334
                ],
                "pd_bus": [
                    0.00030000000000000003,
                    0.00030000000000000003,
                    0.00030000000000000003
                ],
                "qd": [
                    0.00013333333333333334,
                    0.00013333333333333334,
                    0.00013333333333333334
                ],
                "pd": [
                    0.00030000000000000003,
                    0.00030000000000000003,
                    0.00030000000000000003
                ]
            },
            "30": {
                "qd_bus": [
                    8.333333333333334e-5,
                    8.333333333333334e-5,
                    8.333333333333334e-5
                ],
                "pd_bus": [
                    0.0002,
                    0.0002,
                    0.0002
                ],
                "qd": [
                    8.333333333333334e-5,
                    8.333333333333334e-5,
                    8.333333333333334e-5
                ],
                "pd": [
                    0.0002,
                    0.0002,
                    0.0002
                ]
            },
            "3": {
                "qd_bus": [
                    0.00013333333333333334,
                    0.00013333333333333334,
                    0.00013333333333333334
                ],
                "pd_bus": [
                    0.00030000000000000003,
                    0.00030000000000000003,
                    0.00030000000000000003
                ],
                "qd": [
                    0.00013333333333333334,
                    0.00013333333333333334,
                    0.00013333333333333334
                ],
                "pd": [
                    0.00030000000000000003,
                    0.00030000000000000003,
                    0.00030000000000000003
                ]
            }
        },
        "bus": {
            "24": {
                "va": [
                    -0.18420881263139968,
                    -2.278603915024587,
                    1.9101862897618125
                ],
                "vm": [
                    0.6964507723099241,
                    0.6964507723099587,
                    0.6964507723099531
                ]
            },
            "32": {
                "va": [
                    -0.1806869387595614,
                    -2.275082041152753,
                    1.9137081636336446
                ],
                "vm": [
                    0.7025866900815712,
                    0.7025866900816009,
                    0.7025866900815952
                ]
            },
            "1": {
                "va": [
                    -0.18278125409562312,
                    -2.277176356488814,
                    1.9116138482975846
                ],
                "vm": [
                    0.6997513299464644,
                    0.6997513299464951,
                    0.6997513299464895
                ]
            },
            "12": {
                "va": [
                    -0.17453293514147675,
                    -2.268928037534672,
                    1.9198621672517189
                ],
                "vm": [
                    0.8040361393587073,
                    0.8040361393587179,
                    0.8040361393587155
                ]
            },
            "29": {
                "va": [
                    -0.16975638335506418,
                    -2.2641514857482608,
                    1.9246387190381309
                ],
                "vm": [
                    0.7724877258166076,
                    0.7724877258166214,
                    0.7724877258166177
                ]
            },
            "20": {
                "va": [
                    -0.16209498264933012,
                    -2.2564900850425333,
                    1.9323001197438598
                ],
                "vm": [
                    0.6972034343985569,
                    0.6972034343985725,
                    0.6972034343985664
                ]
            },
            "4": {
                "va": [
                    -0.17672749253715897,
                    -2.2711225949303544,
                    1.917667609856039
                ],
                "vm": [
                    0.7345924349936191,
                    0.7345924349936385,
                    0.7345924349936322
                ]
            },
            "2": {
                "va": [
                    -0.15955096787768072,
                    -2.253946070270883,
                    1.934844134515511
                ],
                "vm": [
                    0.7026852537326044,
                    0.7026852537326205,
                    0.7026852537326144
                ]
            },
            "6": {
                "va": [
                    -0.167753940824486,
                    -2.262149043217683,
                    1.9266411615687091
                ],
                "vm": [
                    0.7629280942899169,
                    0.7629280942899318,
                    0.7629280942899278
                ]
            },
            "25": {
                "va": [
                    -0.17170382665492417,
                    -2.2660989290481206,
                    1.922691275738271
                ],
                "vm": [
                    0.7821465879388162,
                    0.7821465879388289,
                    0.7821465879388259
                ]
            },
            "23": {
                "va": [
                    -0.1767485963051791,
                    -2.2711436986983764,
                    1.9176465060880152
                ],
                "vm": [
                    0.7942279053189517,
                    0.7942279053189626,
                    0.7942279053189613
                ]
            },
            "22": {
                "va": [
                    -0.17557375977347237,
                    -2.269968862166668,
                    1.918821342619726
                ],
                "vm": [
                    0.7284569299349509,
                    0.7284569299349722,
                    0.728456929934966
                ]
            },
            "11": {
                "va": [
                    -0.16302657179958818,
                    -2.257421674192792,
                    1.9313685305936015
                ],
                "vm": [
                    0.6956236035899437,
                    0.6956236035899593,
                    0.6956236035899532
                ]
            },
            "13": {
                "va": [
                    -0.1787865631929761,
                    -2.273181665586169,
                    1.915608539200227
                ],
                "vm": [
                    0.7120959091244918,
                    0.7120959091245194,
                    0.7120959091245126
                ]
            },
            "5": {
                "va": [
                    -0.1702252833726432,
                    -2.264620385765841,
                    1.9241698190205523
                ],
                "vm": [
                    0.7390906477939123,
                    0.7390906477939305,
                    0.7390906477939249
                ]
            },
            "31": {
                "va": [
                    -0.17624615681257222,
                    -2.2706412592057683,
                    1.9181489455806229
                ],
                "vm": [
                    0.7649487677117588,
                    0.7649487677117716,
                    0.7649487677117692
                ]
            },
            "15": {
                "va": [
                    -0.16270932946403144,
                    -2.2571044318572326,
                    1.931685772929161
                ],
                "vm": [
                    0.7073633389866953,
                    0.7073633389867117,
                    0.7073633389867057
                ]
            },
            "27": {
                "va": [
                    -0.17502388332343077,
                    -2.269418985716627,
                    1.9193712190697643
                ],
                "vm": [
                    0.7691624657616482,
                    0.7691624657616609,
                    0.7691624657616584
                ]
            },
            "33": {
                "va": [
                    -0.17255723947525162,
                    -2.266952341868448,
                    1.9218378629179436
                ],
                "vm": [
                    0.7776088674263568,
                    0.7776088674263695,
                    0.7776088674263666
                ]
            },
            "28": {
                "va": [
                    -0.1627923902472876,
                    -2.257187492640491,
                    1.931602712145902
                ],
                "vm": [
                    0.6959973550492886,
                    0.6959973550493042,
                    0.695997355049298
                ]
            },
            "16": {
                "va": [
                    -0.17622151590927734,
                    -2.2706166183024745,
                    1.9181735864839171
                ],
                "vm": [
                    0.7951082757650021,
                    0.7951082757650129,
                    0.7951082757650115
                ]
            },
            "14": {
                "va": [
                    -0.1858830053081733,
                    -2.2802781077013456,
                    1.9085120970850555
                ],
                "vm": [
                    0.694126700799439,
                    0.694126700799482,
                    0.6941267007994767
                ]
            },
            "39": {
                "va": [
                    -6.357631763861057e-21,
                    -2.0943951023931953,
                    2.0943951023931957
                ],
                "vm": [
                    1.0,
                    1.0,
                    1.0
                ]
            },
            "21": {
                "va": [
                    -0.17730306100432658,
                    -2.2716981633975237,
                    1.9170920413888677
                ],
                "vm": [
                    0.7934312522049587,
                    0.7934312522049697,
                    0.7934312522049682
                ]
            },
            "7": {
                "va": [
                    -0.18371577877936132,
                    -2.278110881172551,
                    1.9106793236138482
                ],
                "vm": [
                    0.698051365718125,
                    0.6980513657181572,
                    0.6980513657181514
                ]
            },
            "8": {
                "va": [
                    -0.1783943921844393,
                    -2.272789494577632,
                    1.9160007102087637
                ],
                "vm": [
                    0.7102275643535514,
                    0.7102275643535794,
                    0.7102275643535728
                ]
            },
            "26": {
                "va": [
                    -0.18595207085509455,
                    -2.2803471732481047,
                    1.9084430315382968
                ],
                "vm": [
                    0.6935230793939948,
                    0.6935230793941815,
                    0.6935230793941766
                ]
            },
            "17": {
                "va": [
                    -0.1774509135679406,
                    -2.2718460159611347,
                    1.91694418882526
                ],
                "vm": [
                    0.7205178833789057,
                    0.72051788337893,
                    0.7205178833789233
                ]
            },
            "19": {
                "va": [
                    -0.16907331238968692,
                    -2.263468414782885,
                    1.9253217900035082
                ],
                "vm": [
                    0.7365586977898821,
                    0.7365586977899004,
                    0.7365586977898945
                ]
            },
            "10": {
                "va": [
                    -0.1741089935477295,
                    -2.268504095940925,
                    1.9202861088454661
                ],
                "vm": [
                    0.8002382721415666,
                    0.8002382721415774,
                    0.8002382721415751
                ]
            },
            "9": {
                "va": [
                    -0.17902821952653242,
                    -2.2734233219197253,
                    1.9153668828666706
                ],
                "vm": [
                    0.7131716227205006,
                    0.7131716227205277,
                    0.7131716227205209
                ]
            },
            "18": {
                "va": [
                    -0.17440251720185834,
                    -2.268797619595054,
                    1.919992585191337
                ],
                "vm": [
                    0.799578432281589,
                    0.7995784322815997,
                    0.7995784322815975
                ]
            },
            "30": {
                "va": [
                    -0.16501408815705887,
                    -2.259409190550259,
                    1.9293810142361347
                ],
                "vm": [
                    0.7181634968114938,
                    0.7181634968115106,
                    0.7181634968115047
                ]
            },
            "3": {
                "va": [
                    -0.16742868497007418,
                    -2.2618237873632725,
                    1.926966417423121
                ],
                "vm": [
                    0.7331912357902903,
                    0.733191235790308,
                    0.7331912357903023
                ]
            }
        },
        "per_unit": true
    },
    "objective_lb": null
}
